REMARK  9 active torsions:
REMARK  status: ('A' for Active; 'I' for Inactive)
REMARK    1  A    between atoms: O5'_3061  and  P_3058 
REMARK    2  A    between atoms: OPP_3094  and  P_3058 
REMARK    3  A    between atoms: C5'_3062  and  O5'_3061 
REMARK    4  A    between atoms: C4'_3063  and  C5'_3062 
REMARK    5  A    between atoms: C1'_3065  and  N9_3066 
REMARK    6  A    between atoms: C_3092  and  CA_3081 
REMARK    7  A    between atoms: CA_3081  and  CB_3082 
REMARK    8  A    between atoms: CB_3082  and  CG_3083 
REMARK    9  A    between atoms: C_3092  and  OPP_3094 
ROOT
HETATM    1  O5' TYM A 701      23.364  13.430  -0.878  1.00 30.73    -0.268 OA
ENDROOT
BRANCH   1   2
HETATM    2  C5' TYM A 701      23.235  12.952   0.460  1.00 31.65     0.187 C 
BRANCH   2   3
HETATM    3  C4' TYM A 701      21.781  12.986   0.901  1.00 32.51     0.181 C 
HETATM    4  C3' TYM A 701      20.881  12.203  -0.053  1.00 32.36     0.216 C 
HETATM    5  C2' TYM A 701      20.165  13.294  -0.848  1.00 34.56     0.234 C 
HETATM    6  O3' TYM A 701      19.980  11.402   0.722  1.00 27.55    -0.218 OA
HETATM    7  C1' TYM A 701      20.064  14.427   0.164  1.00 35.88     0.241 C 
HETATM    8  O2' TYM A 701      18.883  12.884  -1.302  1.00 34.80    -0.216 OA
HETATM    9  O4' TYM A 701      21.263  14.333   0.964  1.00 34.42    -0.331 OA
BRANCH   7  10
HETATM   10  N9  TYM A 701      19.999  15.799  -0.390  1.00 37.78    -0.270 N 
HETATM   11  C4  TYM A 701      19.109  16.713  -0.006  1.00 38.39     0.170 A 
HETATM   12  N3  TYM A 701      18.062  16.720   0.853  1.00 38.09    -0.205 NA
HETATM   13  C5  TYM A 701      19.429  17.937  -0.765  1.00 39.54     0.155 A 
HETATM   14  C2  TYM A 701      17.311  17.828   1.033  1.00 39.96     0.202 A 
HETATM   15  N1  TYM A 701      17.548  18.987   0.374  1.00 40.19    -0.202 NA
HETATM   16  C6  TYM A 701      18.563  19.117  -0.517  1.00 40.02     0.206 A 
HETATM   17  N6  TYM A 701      18.782  20.276  -1.169  1.00 41.21    -0.125 N 
HETATM   18  N7  TYM A 701      20.501  17.653  -1.530  1.00 38.71    -0.219 NA
HETATM   19  C8  TYM A 701      20.836  16.357  -1.288  1.00 39.25     0.182 A 
ENDBRANCH   7  10
ENDBRANCH   2   3
ENDBRANCH   1   2
BRANCH   1  20
HETATM   20  P   TYM A 701      24.572  12.872  -1.798  1.00 31.98     0.417 P 
HETATM   21  O1P TYM A 701      25.855  12.762  -1.006  1.00 28.76    -0.624 OA
HETATM   22  O2P TYM A 701      24.547  13.609  -3.128  1.00 30.78    -0.624 OA
BRANCH  20  23
HETATM   23  OPP TYM A 701      24.018  11.384  -2.045  1.00 28.67    -0.210 OA
BRANCH  23  24
HETATM   24  C   TYM A 701      24.743  10.413  -2.833  1.00 26.78     0.318 C 
HETATM   25  O   TYM A 701      25.681  10.715  -3.567  1.00 26.53    -0.261 OA
BRANCH  24  26
HETATM   26  CA  TYM A 701      24.270   9.019  -2.635  1.00 24.70     0.391 C 
HETATM   27  NH3 TYM A 701      24.593   8.191  -3.777  1.00 25.00     0.627 N 
BRANCH  26  28
HETATM   28  CB  TYM A 701      24.945   8.566  -1.356  1.00 22.68     0.078 C 
BRANCH  28  29
HETATM   29  CG  TYM A 701      24.243   7.387  -0.765  1.00 21.32     0.001 A 
HETATM   30  CD1 TYM A 701      24.774   6.117  -0.649  1.00 21.11     0.095 A 
HETATM   31  NE1 TYM A 701      23.889   5.287  -0.041  1.00 20.76    -0.244 NA
HETATM   32  CE2 TYM A 701      22.743   5.931   0.277  1.00 20.51     0.081 A 
HETATM   33  CD2 TYM A 701      22.902   7.325  -0.160  1.00 20.15     0.015 A 
HETATM   34  CZ2 TYM A 701      21.551   5.556   0.904  1.00 19.18     0.019 A 
HETATM   35  CE3 TYM A 701      21.907   8.258   0.049  1.00 19.28     0.001 A 
HETATM   36  CZ3 TYM A 701      20.730   7.834   0.669  1.00 19.15     0.000 A 
HETATM   37  CH2 TYM A 701      20.556   6.500   1.078  1.00 19.01     0.002 A 
ENDBRANCH  28  29
ENDBRANCH  26  28
ENDBRANCH  24  26
ENDBRANCH  23  24
ENDBRANCH  20  23
ENDBRANCH   1  20
TORSDOF 9
