REMARK  13 active torsions:
REMARK  status: ('A' for Active; 'I' for Inactive)
REMARK    1  A    between atoms: O3P_3941  and  PA_3889 
REMARK    2  A    between atoms: O5B_3892  and  PA_3889 
REMARK    3  A    between atoms: C5B_3893  and  O5B_3892 
REMARK    4  A    between atoms: C4B_3894  and  C5B_3893 
REMARK    5  A    between atoms: C1B_3900  and  N9A_3901 
REMARK    6  A    between atoms: C1'_3929  and  N10_3927 
REMARK    7  A    between atoms: C1'_3929  and  C2'_3930 
REMARK    8  A    between atoms: C2'_3930  and  C3'_3932 
REMARK    9  A    between atoms: C3'_3932  and  C4'_3934 
REMARK   10  A    between atoms: C4'_3934  and  C5'_3936 
REMARK   11  A    between atoms: C5'_3936  and  O5'_3937 
REMARK   12  A    between atoms: O5'_3937  and  P_3938 
REMARK   13  A    between atoms: O3P_3941  and  P_3938 
ROOT
HETATM    1  O5' FAD A 600     -33.408-109.741 194.414  1.00 42.64    -0.268 OA
ENDROOT
BRANCH   1   2
HETATM    2  C5' FAD A 600     -34.165-108.589 194.543  1.00 33.96     0.190 C 
BRANCH   2   3
HETATM    3  C4' FAD A 600     -35.249-108.604 195.583  1.00 37.23     0.215 C 
HETATM    4  O4' FAD A 600     -34.734-109.247 196.708  1.00 36.38    -0.218 OA
BRANCH   3   5
HETATM    5  C3' FAD A 600     -35.706-107.205 195.911  1.00 33.31     0.217 C 
HETATM    6  O3' FAD A 600     -36.128-106.646 194.738  1.00 33.85    -0.218 OA
BRANCH   5   7
HETATM    7  C2' FAD A 600     -36.839-107.171 196.914  1.00 34.49     0.207 C 
HETATM    8  O2' FAD A 600     -36.359-107.547 198.163  1.00 36.68    -0.218 OA
BRANCH   7   9
HETATM    9  C1' FAD A 600     -37.483-105.817 197.107  1.00 41.27     0.143 C 
BRANCH   9  10
HETATM   10  N10 FAD A 600     -38.397-105.676 198.264  1.00 45.67    -0.308 N 
HETATM   11  C10 FAD A 600     -39.670-106.159 198.109  1.00 46.25     0.169 A 
HETATM   12  N1  FAD A 600     -40.066-106.750 196.945  1.00 43.06    -0.184 NA
HETATM   13  C4X FAD A 600     -40.604-106.057 199.142  1.00 45.29     0.159 A 
HETATM   14  C2  FAD A 600     -41.308-107.231 196.745  1.00 42.81     0.304 A 
HETATM   15  N3  FAD A 600     -42.222-107.134 197.731  1.00 38.79    -0.175 NA
HETATM   16  O2  FAD A 600     -41.635-107.839 195.498  1.00 33.39    -0.147 OA
HETATM   17  C4  FAD A 600     -41.903-106.562 198.912  1.00 42.59     0.236 A 
HETATM   18  O4  FAD A 600     -42.875-106.500 199.907  1.00 43.84    -0.167 OA
HETATM   19  N5  FAD A 600     -40.244-105.481 200.316  1.00 45.96    -0.237 NA
HETATM   20  C5X FAD A 600     -38.977-104.997 200.477  1.00 47.93     0.097 A 
HETATM   21  C9A FAD A 600     -38.040-105.092 199.454  1.00 44.26     0.079 A 
HETATM   22  C6  FAD A 600     -38.623-104.407 201.692  1.00 43.25     0.016 A 
HETATM   23  C9  FAD A 600     -36.767-104.577 199.680  1.00 47.45     0.014 A 
HETATM   24  C8  FAD A 600     -36.423-103.990 200.891  1.00 48.86    -0.024 A 
HETATM   25  C7  FAD A 600     -37.349-103.910 201.905  1.00 45.18    -0.024 A 
HETATM   26  C8M FAD A 600     -35.051-103.459 201.104  1.00 42.36     0.031 C 
HETATM   27  C7M FAD A 600     -36.943-103.276 203.211  1.00 45.40     0.031 C 
ENDBRANCH   9  10
ENDBRANCH   7   9
ENDBRANCH   5   7
ENDBRANCH   3   5
ENDBRANCH   2   3
ENDBRANCH   1   2
BRANCH   1  28
HETATM   28  P   FAD A 600     -32.113-109.693 193.521  1.00 47.63     0.418 P 
HETATM   29  O1P FAD A 600     -31.904-111.030 192.809  1.00 30.52    -0.624 OA
HETATM   30  O2P FAD A 600     -32.393-108.599 192.483  1.00 40.90    -0.624 OA
BRANCH  28  31
HETATM   31  O3P FAD A 600     -30.917-109.254 194.501  1.00 34.67    -0.180 OA
BRANCH  31  32
HETATM   32  PA  FAD A 600     -30.821-109.498 196.086  1.00 40.06     0.418 P 
HETATM   33  O1A FAD A 600     -30.311-108.198 196.703  1.00 47.79    -0.624 OA
HETATM   34  O2A FAD A 600     -32.095-109.850 196.807  1.00 39.60    -0.624 OA
BRANCH  32  35
HETATM   35  O5B FAD A 600     -29.841-110.719 196.370  1.00 40.96    -0.268 OA
BRANCH  35  36
HETATM   36  C5B FAD A 600     -28.487-110.652 196.059  1.00 34.14     0.187 C 
BRANCH  36  37
HETATM   37  C4B FAD A 600     -27.518-111.401 196.900  1.00 37.96     0.181 C 
HETATM   38  C3B FAD A 600     -27.542-110.972 198.310  1.00 37.81     0.216 C 
HETATM   39  C2B FAD A 600     -26.296-110.435 198.583  1.00 44.98     0.234 C 
HETATM   40  O3B FAD A 600     -27.800-112.120 199.162  1.00 32.35    -0.218 OA
HETATM   41  C1B FAD A 600     -25.383-111.024 197.507  1.00 44.63     0.241 C 
HETATM   42  O2B FAD A 600     -25.907-110.829 199.883  1.00 39.56    -0.216 OA
HETATM   43  O4B FAD A 600     -26.235-111.142 196.397  1.00 45.69    -0.331 OA
BRANCH  41  44
HETATM   44  N9A FAD A 600     -24.083-110.415 197.082  1.00 48.56    -0.270 N 
HETATM   45  C4A FAD A 600     -23.010-111.236 196.914  1.00 45.42     0.169 A 
HETATM   46  N3A FAD A 600     -22.807-112.565 197.097  1.00 40.29    -0.205 NA
HETATM   47  C5A FAD A 600     -21.945-110.441 196.481  1.00 46.68     0.148 A 
HETATM   48  C2A FAD A 600     -21.614-113.119 196.857  1.00 42.90     0.201 A 
HETATM   49  N1A FAD A 600     -20.570-112.398 196.443  1.00 42.79    -0.208 NA
HETATM   50  C6A FAD A 600     -20.707-111.080 196.253  1.00 45.10     0.173 A 
HETATM   51  N6A FAD A 600     -19.561-110.362 195.804  1.00 46.79    -0.078 NA
HETATM   52  N7A FAD A 600     -22.412-109.167 196.384  1.00 45.03    -0.220 NA
HETATM   53  C8A FAD A 600     -23.719-109.161 196.744  1.00 46.09     0.182 A 
ENDBRANCH  41  44
ENDBRANCH  36  37
ENDBRANCH  35  36
ENDBRANCH  32  35
ENDBRANCH  31  32
ENDBRANCH  28  31
ENDBRANCH   1  28
TORSDOF 13
