REMARK  3 active torsions:
REMARK  status: ('A' for Active; 'I' for Inactive)
REMARK    1  A    between atoms: C_2895  and  CA_2894 
REMARK    2  A    between atoms: CA_2894  and  CB_2897 
REMARK    3  A    between atoms: CB_2897  and  CG_2898 
ROOT
HETATM    1  CG  TRP A 701      14.511  16.483  20.777  1.00 24.27     0.001 A 
HETATM    2  CD1 TRP A 701      14.341  15.162  21.081  1.00 19.28     0.095 A 
HETATM    3  CD2 TRP A 701      14.023  16.652  19.438  1.00 22.71     0.015 A 
HETATM    4  NE1 TRP A 701      13.772  14.501  20.015  1.00 21.78    -0.244 NA
HETATM    5  CE2 TRP A 701      13.569  15.392  18.997  1.00 22.49     0.081 A 
HETATM    6  CE3 TRP A 701      13.923  17.746  18.576  1.00 18.27     0.001 A 
HETATM    7  CZ2 TRP A 701      13.021  15.203  17.725  1.00 24.42     0.019 A 
HETATM    8  CZ3 TRP A 701      13.383  17.555  17.320  1.00 15.37     0.000 A 
HETATM    9  CH2 TRP A 701      12.940  16.294  16.905  1.00 26.69     0.002 A 
ENDROOT
BRANCH   1  10
HETATM   10  CB  TRP A 701      15.098  17.550  21.656  1.00 21.11     0.079 C 
BRANCH  10  11
HETATM   11  CA  TRP A 701      16.506  17.971  21.229  1.00 26.91     0.392 C 
HETATM   12  N   TRP A 701      17.445  16.869  21.406  1.00 22.23     0.628 N 
BRANCH  11  13
HETATM   13  C   TRP A 701      16.948  19.205  22.007  1.00 29.06     0.224 C 
HETATM   14  O   TRP A 701      16.804  20.334  21.535  1.00 37.99    -0.646 OA
HETATM   15  OXT TRP A 701      17.464  19.105  23.121  1.00 36.42    -0.646 OA
ENDBRANCH  11  13
ENDBRANCH  10  11
ENDBRANCH   1  10
TORSDOF 3
