REMARK  3 active torsions:
REMARK  status: ('A' for Active; 'I' for Inactive)
REMARK    1  A    between atoms: C5'_1889  and  S5'_1888 
REMARK    2  A    between atoms: C4'_1890  and  C5'_1889 
REMARK    3  A    between atoms: C1'_1896  and  C9_1897 
ROOT
HETATM    1  C4' MTI A 301       8.210   2.073  92.167  1.00 27.62     0.300 C 
HETATM    2  N4' MTI A 301       7.245   3.096  91.751  1.00 25.15     0.346 N 
HETATM    3  C2' MTI A 301       9.356   3.778  90.852  1.00 23.32     0.223 C 
HETATM    4  O2' MTI A 301       9.704   3.935  89.430  1.00 23.06    -0.218 OA
HETATM    5  C3' MTI A 301       9.487   2.259  91.332  1.00 24.96     0.219 C 
HETATM    6  O3' MTI A 301       9.477   1.323  90.174  1.00 25.41    -0.218 OA
HETATM    7  C1' MTI A 301       7.887   4.253  91.140  1.00 23.11     0.315 C 
ENDROOT
BRANCH   7   8
HETATM    8  C9  MTI A 301       7.712   5.468  92.115  1.00 22.00     0.052 A 
HETATM    9  C4  MTI A 301       8.657   6.304  92.794  1.00 21.18     0.105 A 
HETATM   10  N3  MTI A 301      10.074   6.251  92.765  1.00 22.24    -0.223 NA
HETATM   11  C5  MTI A 301       7.892   7.227  93.532  1.00 20.23     0.156 A 
HETATM   12  C2  MTI A 301      10.716   7.209  93.533  1.00 20.52     0.202 A 
HETATM   13  N1  MTI A 301       9.996   8.159  94.286  1.00 21.65    -0.184 NA
HETATM   14  C6  MTI A 301       8.566   8.233  94.335  1.00 20.90     0.300 A 
HETATM   15  O6  MTI A 301       8.027   9.102  95.027  1.00 21.37    -0.263 OA
HETATM   16  N7  MTI A 301       6.541   7.001  93.341  1.00 19.57    -0.238 NA
HETATM   17  C8  MTI A 301       6.484   5.982  92.523  1.00 19.90     0.098 A 
ENDBRANCH   7   8
BRANCH   1  18
HETATM   18  C5' MTI A 301       8.442   2.227  93.669  1.00 29.72     0.096 C 
BRANCH  18  19
HETATM   19  S5' MTI A 301       9.169   0.752  94.440  1.00 36.62    -0.137 SA
HETATM   20  CS  MTI A 301      10.060   1.493  95.806  1.00 34.32     0.069 C 
ENDBRANCH  18  19
ENDBRANCH   1  18
TORSDOF 3
