REMARK  9 active torsions:
REMARK  status: ('A' for Active; 'I' for Inactive)
REMARK    1  A    between atoms: C02_2917  and  C03_2918 
REMARK    2  A    between atoms: C02_2917  and  C11_2925 
REMARK    3  A    between atoms: C03_2918  and  C04_2919 
REMARK    4  A    between atoms: C11_2925  and  O13_2944 
REMARK    5  A    between atoms: C18_2926  and  C19_2927 
REMARK    6  A    between atoms: C18_2926  and  O17_2947 
REMARK    7  A    between atoms: C21_2928  and  N26_2937 
REMARK    8  A    between atoms: O13_2944  and  P14_2951 
REMARK    9  A    between atoms: O17_2947  and  P14_2951 
ROOT
HETATM    1  C18 69X A 401       9.565  -1.547  56.049  1.00 32.07     0.187 C 
ENDROOT
BRANCH   1   2
HETATM    2  C19 69X A 401      10.964  -2.151  56.061  1.00 33.39     0.181 C 
HETATM    3  C24 69X A 401      11.085  -3.448  55.115  1.00 35.26     0.216 C 
HETATM    4  C22 69X A 401      10.784  -4.559  56.108  1.00 36.85     0.234 C 
HETATM    5  O25 69X A 401      12.397  -3.458  54.600  1.00 34.67    -0.218 OA
HETATM    6  C21 69X A 401      11.469  -4.028  57.383  1.00 31.53     0.241 C 
HETATM    7  O23 69X A 401      11.314  -5.864  55.709  1.00 36.31    -0.216 OA
HETATM    8  O20 69X A 401      11.214  -2.663  57.401  1.00 34.69    -0.331 OA
BRANCH   6   9
HETATM    9  N26 69X A 401      10.956  -4.688  58.519  1.00 38.46    -0.270 N 
HETATM   10  C27 69X A 401       9.609  -4.662  59.034  1.00 37.06     0.182 A 
HETATM   11  N28 69X A 401       9.505  -5.426  60.159  1.00 39.84    -0.219 NA
HETATM   12  C29 69X A 401      10.792  -5.958  60.422  1.00 41.36     0.155 A 
HETATM   13  C35 69X A 401      11.674  -5.499  59.427  1.00 39.28     0.170 A 
HETATM   14  C30 69X A 401      11.316  -6.833  61.431  1.00 41.20     0.206 A 
HETATM   15  N34 69X A 401      13.063  -5.830  59.354  1.00 34.68    -0.205 NA
HETATM   16  C33 69X A 401      13.464  -6.664  60.344  1.00 37.51     0.202 A 
HETATM   17  N32 69X A 401      12.679  -7.172  61.352  1.00 39.32    -0.202 NA
HETATM   18  N31 69X A 401      10.574  -7.364  62.458  1.00 38.51    -0.125 N 
ENDBRANCH   6   9
ENDBRANCH   1   2
BRANCH   1  19
HETATM   19  O17 69X A 401       8.671  -2.470  56.519  1.00 32.12    -0.268 OA
BRANCH  19  20
HETATM   20  P14 69X A 401       7.035  -2.209  55.923  1.00 36.09     0.417 P 
HETATM   21  O15 69X A 401       6.277  -3.326  56.502  1.00 35.48    -0.624 OA
HETATM   22  O16 69X A 401       6.798  -0.756  56.050  1.00 34.21    -0.624 OA
BRANCH  20  23
HETATM   23  O13 69X A 401       7.350  -2.530  54.259  1.00 39.17    -0.210 OA
BRANCH  23  24
HETATM   24  C11 69X A 401       6.402  -2.551  53.336  1.00 40.93     0.318 C 
HETATM   25  O12 69X A 401       5.272  -2.623  53.647  1.00 37.42    -0.261 OA
BRANCH  24  26
HETATM   26  C02 69X A 401       6.957  -2.401  51.923  1.00 36.61     0.391 C 
HETATM   27  N01 69X A 401       6.081  -3.094  50.933  1.00 31.77     0.627 N 
BRANCH  26  28
HETATM   28  C03 69X A 401       7.096  -0.872  51.651  1.00 29.86     0.076 C 
BRANCH  28  29
HETATM   29  C04 69X A 401       7.768  -0.554  50.378  1.00 36.26    -0.019 A 
HETATM   30  C05 69X A 401       9.132  -0.899  50.131  1.00 31.14    -0.002 A 
HETATM   31  C06 69X A 401       9.755  -0.628  48.901  1.00 30.88     0.027 A 
HETATM   32  C07 69X A 401       9.044   0.004  47.843  1.00 32.18     0.131 A 
HETATM   33  C09 69X A 401       7.662   0.383  48.076  1.00 32.72     0.027 A 
HETATM   34  O08 69X A 401       9.642   0.293  46.658  1.00 31.88    -0.190 OA
HETATM   35  C10 69X A 401       7.081   0.076  49.296  1.00 28.79    -0.002 A 
ENDBRANCH  28  29
ENDBRANCH  26  28
ENDBRANCH  24  26
ENDBRANCH  23  24
ENDBRANCH  20  23
ENDBRANCH  19  20
ENDBRANCH   1  19
TORSDOF 9
