REMARK  10 active torsions:
REMARK  status: ('A' for Active; 'I' for Inactive)
REMARK    1  A    between atoms: CA_2307  and  CB_2308 
REMARK    2  A    between atoms: C11_2329  and  CG_2309 
REMARK    3  A    between atoms: CG_2309  and  SD_2310 
REMARK    4  A    between atoms: C5'_2311  and  SD_2310 
REMARK    5  A    between atoms: C4'_2312  and  C5'_2311 
REMARK    6  A    between atoms: C1'_2318  and  N9_2319 
REMARK    7  A    between atoms: C11_2329  and  C12_2330 
REMARK    8  A    between atoms: C12_2330  and  C13_2331 
REMARK    9  A    between atoms: C13_2331  and  C14_2332 
REMARK   10  A    between atoms: C14_2332  and  C15_2333 
ROOT
HETATM    1  C4' AAT A 801      17.807 115.689  29.914  1.00 29.01     0.162 C 
HETATM    2  O4' AAT A 801      18.528 115.435  28.666  1.00 28.13    -0.333 OA
HETATM    3  C3' AAT A 801      17.827 117.238  30.041  1.00 28.01     0.215 C 
HETATM    4  O3' AAT A 801      18.127 117.552  31.399  1.00 26.53    -0.218 OA
HETATM    5  C2' AAT A 801      18.933 117.669  29.069  1.00 27.54     0.234 C 
HETATM    6  O2' AAT A 801      19.866 118.658  29.585  1.00 28.04    -0.216 OA
HETATM    7  C1' AAT A 801      19.666 116.342  28.806  1.00 26.52     0.241 C 
ENDROOT
BRANCH   1   8
HETATM    8  C5' AAT A 801      16.375 115.047  30.131  1.00 32.86     0.094 C 
BRANCH   8   9
HETATM    9  SD  AAT A 801      15.165 115.420  28.792  1.00 34.89    -0.116 SA
BRANCH   9  10
HETATM   10  CG  AAT A 801      13.645 114.699  29.322  1.00 32.16     0.001 C 
HETATM   11  CB  AAT A 801      13.336 114.680  30.675  1.00 32.14     0.017 C 
BRANCH  10  12
HETATM   12  C11 AAT A 801      12.671 114.237  28.243  1.00 30.95     0.032 C 
BRANCH  12  13
HETATM   13  C12 AAT A 801      12.047 115.507  27.606  1.00 31.94     0.005 C 
BRANCH  13  14
HETATM   14  C13 AAT A 801      11.360 115.218  26.259  1.00 30.09     0.003 C 
BRANCH  14  15
HETATM   15  C14 AAT A 801      10.796 116.495  25.586  1.00 28.33     0.041 C 
BRANCH  15  16
HETATM   16  C15 AAT A 801       9.692 116.155  24.562  1.00 29.11     0.338 C 
HETATM   17  N16 AAT A 801       9.364 117.349  23.765  1.00 28.78     0.618 N 
ENDBRANCH  15  16
ENDBRANCH  14  15
ENDBRANCH  13  14
ENDBRANCH  12  13
ENDBRANCH  10  12
BRANCH  11  18
HETATM   18  CA  AAT A 801      12.276 114.162  31.408  1.00 32.50     0.365 C 
HETATM   19  N   AAT A 801      12.934 113.158  32.267  1.00 29.45     0.623 N 
ENDBRANCH  11  18
ENDBRANCH   9  10
ENDBRANCH   8   9
ENDBRANCH   1   8
BRANCH   7  20
HETATM   20  N9  AAT A 801      20.529 116.354  27.584  1.00 26.28    -0.270 N 
HETATM   21  C4  AAT A 801      21.701 115.743  27.456  1.00 26.56     0.170 A 
HETATM   22  N3  AAT A 801      22.437 114.987  28.299  1.00 26.45    -0.205 NA
HETATM   23  C5  AAT A 801      22.168 115.990  26.177  1.00 26.13     0.155 A 
HETATM   24  C2  AAT A 801      23.604 114.486  27.894  1.00 26.16     0.202 A 
HETATM   25  N1  AAT A 801      24.084 114.709  26.674  1.00 26.79    -0.202 NA
HETATM   26  C6  AAT A 801      23.392 115.450  25.782  1.00 26.50     0.206 A 
HETATM   27  N6  AAT A 801      23.877 115.671  24.553  1.00 26.73    -0.125 N 
HETATM   28  N7  AAT A 801      21.258 116.757  25.568  1.00 27.77    -0.219 NA
HETATM   29  C8  AAT A 801      20.266 116.964  26.426  1.00 27.12     0.182 A 
ENDBRANCH   7  20
TORSDOF 10
