REMARK  6 active torsions:
REMARK  status: ('A' for Active; 'I' for Inactive)
REMARK       I    between atoms: C7_4354  and  N1_4349 
REMARK       I    between atoms: C7_4354  and  N2_4379 
REMARK    1  A    between atoms: C8_4355  and  N2_4379 
REMARK    2  A    between atoms: C13_4357  and  N5_4381 
REMARK    3  A    between atoms: C_4365  and  C22_4362 
REMARK       I    between atoms: C_4365  and  N_4364 
REMARK    4  A    between atoms: C1_4367  and  N_4364 
REMARK    5  A    between atoms: C1_4367  and  C2_4374 
REMARK    6  A    between atoms: C12_4369  and  C9_4378 
REMARK       I    between atoms: C12_4369  and  N5_4381 
ROOT
HETATM    1  N3  9X2 A 815      44.033   8.321 136.398  1.00 35.57    -0.234 NA
HETATM    2  C8  9X2 A 815      42.660   6.958 134.984  1.00 38.02     0.190 A 
HETATM    3  C10 9X2 A 815      42.894   8.651 137.029  1.00 33.86     0.120 A 
HETATM    4  C11 9X2 A 815      41.664   8.141 136.652  1.00 34.81     0.121 A 
HETATM    5  C9  9X2 A 815      43.910   7.472 135.367  1.00 33.65     0.174 A 
HETATM    6  N4  9X2 A 815      41.527   7.276 135.637  1.00 37.44    -0.222 NA
ENDROOT
BRANCH   2   7
HETATM    7  N2  9X2 A 815      42.567   6.074 133.914  1.00 37.33    -0.172 NA
HETATM    8  C7  9X2 A 815      41.478   5.681 133.190  1.00 39.75     0.348 C 
HETATM    9  O1  9X2 A 815      40.358   6.137 133.349  1.00 33.16    -0.245 OA
HETATM   10  N1  9X2 A 815      41.715   4.763 132.229  1.00 51.23    -0.301 N 
HETATM   11  C4  9X2 A 815      40.662   4.376 131.284  1.00 55.41     0.106 C 
HETATM   12  C5  9X2 A 815      42.893   3.887 132.229  1.00 52.19     0.106 C 
HETATM   13  C3  9X2 A 815      40.226   2.947 131.544  1.00 56.58     0.026 C 
HETATM   14  C2  9X2 A 815      41.492   2.172 131.242  1.00 68.08     0.028 C 
HETATM   15  C6  9X2 A 815      42.483   2.429 132.366  1.00 64.56     0.026 C 
BRANCH  14  16
HETATM   16  C1  9X2 A 815      42.059   2.670 129.921  1.00 57.87     0.129 C 
BRANCH  16  17
HETATM   17  N   9X2 A 815      42.661   1.617 129.108  1.00 63.60    -0.236 NA
HETATM   18  C   9X2 A 815      43.898   1.722 128.614  1.00 76.02     0.285 C 
HETATM   19  O   9X2 A 815      44.665   2.638 128.914  1.00 76.05    -0.268 OA
BRANCH  18  20
HETATM   20  C22 9X2 A 815      44.327   0.651 127.609  1.00 77.01     0.336 C 
HETATM   21  N6  9X2 A 815      43.669   0.853 126.309  1.00 58.93     0.346 N 
HETATM   22  C25 9X2 A 815      44.432   1.969 125.698  1.00 74.11     0.291 C 
HETATM   23  C24 9X2 A 815      45.898   1.764 126.115  1.00 70.04     0.041 C 
HETATM   24  C23 9X2 A 815      45.832   0.771 127.301  1.00 70.86     0.048 C 
ENDBRANCH  18  20
ENDBRANCH  16  17
ENDBRANCH  14  16
ENDBRANCH   2   7
BRANCH   5  25
HETATM   25  C12 9X2 A 815      45.184   7.065 134.665  1.00 39.63     0.296 C 
HETATM   26  N5  9X2 A 815      46.323   7.444 135.253  1.00 37.32    -0.234 NA
HETATM   27  O2  9X2 A 815      45.164   6.403 133.631  1.00 38.26    -0.264 OA
BRANCH  26  28
HETATM   28  C13 9X2 A 815      47.634   7.135 134.675  1.00 39.61     0.115 C 
HETATM   29  C17 9X2 A 815      48.730   7.344 135.736  1.00 39.91     0.051 C 
HETATM   30  C16 9X2 A 815      49.033   8.806 135.569  1.00 38.99    -0.024 A 
HETATM   31  C15 9X2 A 815      48.716   9.217 134.282  1.00 38.96    -0.024 A 
HETATM   32  C18 9X2 A 815      49.598   9.713 136.471  1.00 38.66    -0.004 A 
HETATM   33  C14 9X2 A 815      48.017   8.105 133.541  1.00 43.75     0.051 C 
HETATM   34  C21 9X2 A 815      49.015  10.512 133.871  1.00 43.21    -0.004 A 
HETATM   35  C20 9X2 A 815      49.592  11.405 134.758  1.00 37.65    -0.000 A 
HETATM   36  C19 9X2 A 815      49.873  11.013 136.065  1.00 37.02    -0.000 A 
ENDBRANCH  26  28
ENDBRANCH   5  25
TORSDOF 6
